
Note: No compatibility mode selected!


Circuit: ** sch_path: /home/subhransu/gitrepo/test/runs/run_2025-12-22_00-51-47/parameters/transient_response/run_7/tran.sch

Doing analysis at TEMP = 130.000000 and TNOM = 27.000000

Using SPARSE 1.3 as Direct Linear Solver

Initial Transient Solution
--------------------------

Node                                   Voltage
----                                   -------
vss                                          0
vdd                                        1.8
vin                                        1.8
vout                               1.00194e-07
v3#branch                                    0
v2#branch                         -8.23785e-12
v1#branch                          8.23789e-12

 Reference value :  5.72800e-09
 Reference value :  1.82280e-08
 Reference value :  3.87280e-08
No. of Data Rows : 508
Note: Simulation executed from .control section 
