
Note: No compatibility mode selected!


Circuit: ** sch_path: /home/subhransu/gitrepo/test/runs/run_2025-12-22_00-51-47/parameters/transient_response/run_2/tran.sch

Doing analysis at TEMP = -40.000000 and TNOM = 27.000000

Using SPARSE 1.3 as Direct Linear Solver

Initial Transient Solution
--------------------------

Node                                   Voltage
----                                   -------
vss                                          0
vdd                                        1.8
vin                                        1.8
vout                                 1.251e-08
v3#branch                                    0
v2#branch                         -1.80023e-12
v1#branch                          1.80018e-12

 Reference value :  0.00000e+00
 Reference value :  8.32800e-09
 Reference value :  2.73280e-08
No. of Data Rows : 508
Note: Simulation executed from .control section 
