
Note: No compatibility mode selected!


Circuit: ** sch_path: /home/subhransu/gitrepo/test/runs/run_2025-12-26_18-47-52/parameters/dc_response/run_2/dc.sch

Doing analysis at TEMP = -40.000000 and TNOM = 27.000000

Using SPARSE 1.3 as Direct Linear Solver
 Reference value :  2.30000e-01
 Reference value :  1.43000e+00
No. of Data Rows : 181
Note: Simulation executed from .control section 
