
Note: No compatibility mode selected!


Circuit: ** sch_path: /home/subhransu/gitrepo/test/runs/run_2025-12-22_09-35-33/parameters/dc_response/run_7/dc.sch

Doing analysis at TEMP = 130.000000 and TNOM = 27.000000

Using SPARSE 1.3 as Direct Linear Solver
 Reference value :  0.00000e+00
 Reference value :  2.00000e-02
 Reference value :  7.60000e-01
No. of Data Rows : 181
Note: Simulation executed from .control section 
