
Note: No compatibility mode selected!


Circuit: ** sch_path: /home/subhransu/gitrepo/test/runs/run_2025-12-04_22-59-07/parameters/dc_params/run_0/dc.sch

