
Note: No compatibility mode selected!


Circuit: ** sch_path: /home/subhransu/gitrepo/test/runs/run_2025-12-22_09-35-33/parameters/transient_response/run_1/tran.sch

Doing analysis at TEMP = -40.000000 and TNOM = 27.000000

Using SPARSE 1.3 as Direct Linear Solver

Initial Transient Solution
--------------------------

Node                                   Voltage
----                                   -------
vss                                          0
vdd                                        1.8
vin                                          0
vout                                       1.8
v3#branch                                    0
v2#branch                          -1.8002e-12
v1#branch                          1.80038e-12

 Reference value :  5.45000e-09
 Reference value :  2.09500e-08
 Reference value :  4.00000e-08
No. of Data Rows : 535
Note: Simulation executed from .control section 
