
Note: No compatibility mode selected!


Circuit: ** sch_path: /home/subhransu/gitrepo/test/runs/run_2025-12-21_23-15-51/parameters/transient_response/run_3/tran.sch

