
Note: No compatibility mode selected!


Circuit: ** sch_path: /home/subhransu/gitrepo/test/runs/run_2025-12-21_23-20-14/parameters/transient_response/run_4/tran.sch

