
Note: No compatibility mode selected!


Circuit: ** sch_path: /home/subhransu/gitrepo/test/runs/run_2025-12-26_18-47-52/parameters/transient_response/run_8/tran.sch

Doing analysis at TEMP = 130.000000 and TNOM = 27.000000

Using SPARSE 1.3 as Direct Linear Solver

Initial Transient Solution
--------------------------

Node                                   Voltage
----                                   -------
vss                                          0
vdd                                        1.8
vin                                          0
vout                                       1.8
v3#branch                                    0
v2#branch                         -6.18094e-11
v1#branch                          6.18095e-11

 Reference value :  1.05500e-08
 Reference value :  3.10000e-08
 Reference value :  4.46500e-08
No. of Data Rows : 535
Note: Simulation executed from .control section 
