
Note: No compatibility mode selected!


Circuit: ** sch_path: /home/subhransu/gitrepo/test/runs/run_2025-12-26_18-47-52/parameters/transient_response/run_5/tran.sch

Doing analysis at TEMP = 27.000000 and TNOM = 27.000000

Using SPARSE 1.3 as Direct Linear Solver

Initial Transient Solution
--------------------------

Node                                   Voltage
----                                   -------
vss                                          0
vdd                                        1.8
vin                                          0
vout                                       1.8
v3#branch                                    0
v2#branch                         -2.01411e-12
v1#branch                          2.01426e-12

 Reference value :  2.19500e-08
No. of Data Rows : 535
Note: Simulation executed from .control section 
