
Note: No compatibility mode selected!


Circuit: ** sch_path: /home/subhransu/gitrepo/test/runs/run_2025-12-22_09-35-33/parameters/dc_response/run_2/dc.sch

Doing analysis at TEMP = -40.000000 and TNOM = 27.000000

Using SPARSE 1.3 as Direct Linear Solver
 Reference value :  8.30000e-01
No. of Data Rows : 181
Note: Simulation executed from .control section 
