
Note: No compatibility mode selected!


Circuit: ** sch_path: /home/subhransu/gitrepo/test/runs/run_2025-12-21_23-22-36/parameters/transient_response/run_8/tran.sch

