
Note: No compatibility mode selected!


Circuit: ** sch_path: /home/subhransu/gitrepo/test/runs/run_2025-12-22_00-51-47/parameters/transient_response/run_4/tran.sch

Doing analysis at TEMP = 27.000000 and TNOM = 27.000000

Using SPARSE 1.3 as Direct Linear Solver

Initial Transient Solution
--------------------------

Node                                   Voltage
----                                   -------
vss                                          0
vdd                                        1.8
vin                                        1.8
vout                               1.59601e-08
v3#branch                                    0
v2#branch                         -1.80433e-12
v1#branch                          1.80433e-12

 Reference value :  8.42800e-09
 Reference value :  3.26280e-08
No. of Data Rows : 508
Note: Simulation executed from .control section 
