
Note: No compatibility mode selected!


Circuit: ** sch_path: /home/subhransu/gitrepo/test/runs/run_2025-12-22_09-35-33/parameters/dc_response/run_4/dc.sch

Doing analysis at TEMP = 27.000000 and TNOM = 27.000000

Using SPARSE 1.3 as Direct Linear Solver
 Reference value :  4.10000e-01
 Reference value :  1.49000e+00
No. of Data Rows : 181
Note: Simulation executed from .control section 
